string
__Jmol-16.06242421573D 1   1.00000     0.00000     0
Jmol version 16.1.41  2023-09-15 17:39 EXTRACT: ({20:22 25:28 31:34 38:42 45:48})
 20 20  0  0  0  0            999 V2000
   -0.1912   -0.5357    0.1563 C   0  0  2  0  0  0
    0.7198   -1.7561   -0.0576 C   0  0  2  0  0  0
    2.0356   -1.6827    0.7300 C   0  0  2  0  0  0
    3.1298   -0.2674    0.1462 Si  0  0  0  0  0  0
    4.5216   -0.0698    0.5738 H   0  0  0  0  0  0
    4.1169   -0.3552    1.2307 H   0  0  0  0  0  0
    3.4325   -0.5126   -1.2689 H   0  0  0  0  0  0
    0.5626    1.0240   -0.5589 Si  0  0  2  0  0  0
   -0.3924   -0.3910    1.2422 H   0  0  0  0  0  0
   -1.1543   -0.7067   -0.3635 H   0  0  0  0  0  0
    2.1807    1.3314    0.3089 C   0  0  0  0  0  0
   -0.3400    2.1736   -0.3763 H   0  0  0  0  0  0
    0.7924    0.8049   -1.9964 H   0  0  0  0  0  0
    3.0384    2.0275    0.4271 H   0  0  0  0  0  0
    2.3255    2.0951   -0.4851 H   0  0  0  0  0  0
    1.8179    1.5134    1.3367 H   0  0  0  0  0  0
    0.9220   -1.8998   -1.1405 H   0  0  0  0  0  0
    0.1675   -2.6504    0.3048 H   0  0  0  0  0  0
    2.5999   -2.6254    0.5863 H   0  0  0  0  0  0
    1.8200   -1.5561    1.8086 H   0  0  0  0  0  0
  2  1  1
  3  2  1
  4  3  1
  5  4  1
  6  4  1
  7  4  1
  8  1  1
  9  1  1
 10  1  1
 11  8  1
 12  8  1
 13  8  1
 14 11  1
 15 11  1
 16 11  1
 11  4  1
 17  2  1
 18  2  1
 19  3  1
 20  3  1
M  END
