150
MolAdso: Version 1.0.0 2024-10-22
C         1.955          2.723         5.214                           
C         0.518          2.552         4.930                           
C         0.329          1.959         3.550                           
C         0.859          2.993         2.516                           
C         2.321          3.263         2.835                           
O         2.459          3.653         4.213                           
O         6.409         -2.401         0.758                           
O         7.243         -0.768         2.643                           
O         8.136         -0.504         7.729                           
O         5.642          0.110         8.294                           
O         7.216          3.942         2.643                           
O         5.841          2.732         0.758                           
O         8.136          3.878         7.728                           
O         1.277          5.823         2.643                           
O         2.931          3.778         2.643                           
O         1.277          1.732         2.643                           
SI        6.858         -0.890         1.086                            
SI        6.805          3.977         1.088                            
SI        2.825          5.383         2.643                            
SI        2.825          2.172         2.643                            
O        14.401         -2.401         4.529                           
O        14.401         -2.401         0.758                           
O         6.409         -2.401         4.529                           
O        15.537          7.866         0.758                           
O         5.273          7.866         4.529                           
O         5.273          7.866         0.758                           
O        15.537          7.866         4.529                           
O        13.567         16.500         6.415                           
O        13.567         -0.768         2.643                           
O         7.243         16.500         6.415                           
O        16.371          9.498         2.643                           
O         4.439          6.233         6.415                           
O         4.439          9.498         2.643                           
O        16.371          6.233         6.415                           
O        12.674         16.236         3.958                           
O        12.674         -0.504         5.100                           
O         8.136         16.236         1.329                           
O        12.674         16.236         1.329                           
O         8.136         -0.504         5.100                           
O         8.136         16.236         3.958                           
O        12.674         -0.504         7.729                           
O        17.264          9.763         7.729                           
O         3.546          5.969         3.958                           
O         3.546          9.763         5.100                           
O        17.264          5.969         1.329                           
O         3.546          5.969         1.329                           
O        17.264          9.763         5.100                           
O        17.264          5.969         3.958                           
O         3.546          9.763         7.729                           
O        15.168         15.622         4.523                           
O        15.168          0.110         4.535                           
O         5.642         15.622         0.764                           
O        15.168         15.622         0.764                           
O         5.642          0.110         4.535                           
O         5.642         15.622         4.523                           
O        15.168          0.110         8.294                           
O        14.770         10.377         8.294                           
O         6.040          5.355         4.523                           
O         6.040         10.377         4.535                           
O        14.770          5.355         0.764                           
O         6.040          5.355         0.764                           
O        14.770         10.377         4.535                           
O        14.770          5.355         4.523                           
O         6.040         10.377         8.294                           
O        13.594         11.790         6.415                           
O        13.594          3.942         2.643                           
O         7.216         11.790         6.415                           
O        16.344         14.209         2.643                           
O         4.466          1.523         6.415                           
O         4.466         14.209         2.643                           
O        16.344          1.523         6.415                           
O        14.969         12.999         4.529                           
O        14.969          2.732         4.529                           
O         5.841         12.999         0.758                           
O        14.969         12.999         0.758                           
O         5.841          2.732         4.529                           
O         5.841         12.999         4.529                           
O        14.969          2.732         0.758                           
O        12.674         11.854         3.957                           
O        12.674          3.878         5.101                           
O         8.136         11.854         1.330                           
O        12.674         11.854         1.330                           
O         8.136          3.878         5.101                           
O         8.136         11.854         3.957                           
O        12.674          3.878         7.728                           
O        17.264         14.145         7.728                           
O         3.546          1.587         3.957                           
O         3.546         14.145         5.101                           
O        17.264          1.587         1.330                           
O         3.546          1.587         1.330                           
O        17.264         14.145         5.101                           
O        17.264          1.587         3.957                           
O         3.546         14.145         7.728                           
O         1.277          9.909         6.415                           
O        10.405         16.090         2.643                           
O        10.405         -0.358         6.415                           
O        17.879         11.954         6.415                           
O        17.879          3.778         2.643                           
O         2.931         11.954         6.415                           
O        12.059         14.045         2.643                           
O         8.751          1.687         6.415                           
O         8.751         14.045         2.643                           
O        12.059          1.687         6.415                           
O         1.277         14.000         6.415                           
O        10.405         11.999         2.643                           
O        10.405          3.732         6.415                           
SI       13.952         16.622         4.857                            
SI       13.952         -0.890         4.201                            
SI        6.858         16.622         7.972                            
SI       13.952         16.622         7.972                            
SI        6.858         -0.890         4.201                            
SI        6.858         16.622         4.857                            
SI       13.952         -0.890         1.086                            
SI       15.986          9.377         1.086                            
SI        4.824          6.355         4.857                            
SI        4.824          9.377         4.201                            
SI       15.986          6.355         7.972                            
SI        4.824          6.355         7.972                            
SI       15.986          9.377         4.201                            
SI       15.986          6.355         4.857                            
SI        4.824          9.377         1.086                            
SI       14.005         11.755         4.859                            
SI       14.005          3.977         4.199                            
SI        6.805         11.755         7.970                            
SI       14.005         11.755         7.970                            
SI        6.805          3.977         4.199                            
SI        6.805         11.755         4.859                            
SI       14.005          3.977         1.088                            
SI       15.933         14.244         1.088                            
SI        4.877          1.488         4.859                            
SI        4.877         14.244         4.199                            
SI       15.933          1.488         7.970                            
SI        4.877          1.488         7.970                            
SI       15.933         14.244         4.199                            
SI       15.933          1.488         4.859                            
SI        4.877         14.244         1.088                            
SI       17.985         10.349         6.415                            
SI       17.985          5.383         2.643                            
SI        2.825         10.349         6.415                            
SI       11.953         15.650         2.643                            
SI        8.857          0.082         6.415                            
SI        8.857         15.650         2.643                            
SI       11.953          0.082         6.415                            
SI       17.985         13.560         6.415                            
SI       17.985          2.172         2.643                            
SI        2.825         13.560         6.415                            
SI       11.953         12.439         2.643                            
SI        8.857          3.293         6.415                            
SI        8.857         12.439         2.643                            
SI       11.953          3.293         6.415                            
